private-gravity/data_sets/Power/Phase_0_IEEE14_1Scenario/scenario_1/pscopf14.m
function mpc = pscopf14
%PSCOPF14

%% MATPOWER Case Format : Version 2
mpc.version = '2';

%%-----  Power Flow Data  -----%%
%% system MVA base
mpc.baseMVA = 100;

%% bus data
%	bus_i	type	Pd	Qd	Gs	Bs	area	Vm	Va	baseKV	zone	Vmax	Vmin
mpc.bus = [
	1	3	0	0	0	0	1	1.06	0	100	2	1.1	0.9;
	2	2	16.8107012	11.00486	0	0	1	1.045	-4.9826	100	2	1.1	0.9;
	3	2	80.6618895	22.2494368	0	0	1	1.01	-12.7251	100	2	1.1	0.9;
	4	1	51.2353131	-3.56688794	0	0	1	1.01767	-10.3129	100	2	1.1	0.9;
	5	1	7.1251291	2.06001615	0	0	1	1.01951	-8.7739	100	2	1.1	0.9;
	6	2	10.9827833	5.44991708	0	0	1	1.07	-14.221	100	2	1.1	0.9;
	7	1	0	0	0	0	1	1.06152	-13.3596	100	2	1.1	0.9;
	8	2	0	0	0	0	1	1.09	-13.3596	100	2	1.1	0.9;
	9	1	24.6838057	15.8249858	0	19	1	1.05593	-14.9385	100	2	1.1	0.9;
	10	1	8.82165655	5.55372651	0	0	1	1.05098	-15.0973	100	2	1.1	0.9;
	11	1	3.84630233	1.45320338	0	0	1	1.05691	-14.7906	100	2	1.1	0.9;
	12	1	5.64341563	1.74133085	0	0	1	1.05519	-15.0756	100	2	1.1	0.9;
	13	1	11.6656733	5.28130269	0	0	1	1.05038	-15.1563	100	2	1.1	0.9;
	14	1	13.0513021	4.52761968	0	0	1	1.03553	-16.0336	100	2	1.1	0.9;
];

%% generator data
%	bus	Pg	Qg	Qmax	Qmin	Vg	mBase	status	Pmax	Pmin	Pc1	Pc2	Qc1min	Qc1max	Qc2min	Qc2max	ramp_agc	ramp_10	ramp_30	ramp_q	apf	mu_Pmax	mu_Pmin	mu_Qmax	mu_Qmin
mpc.gen = [
	1	232.393	-16.549	76.0611456	-132.202157	1.06	100	1	245.445087	37.9649607	0	0	0	0	0	0	0	0	0	0	0	0.0000	0.0000	0.0000	0.0000;
	2	40	43.557	36.1668178	-76.9812485	1.045	100	1	157.502556	48.1482664	0	0	0	0	0	0	0	0	0	0	0	0.0000	0.0000	0.0000	0.0000;
	3	0	25.075	48.5122518	-0.879330419	1.01	100	1	82.499862	5.80178827	0	0	0	0	0	0	0	0	0	0	0	0.0000	0.0000	0.0000	0.0000;
	6	0	12.731	19.4713687	-19.1130246	1.07	100	1	110.503276	11.4610935	0	0	0	0	0	0	0	0	0	0	0	0.0000	0.0000	0.0000	0.0000;
	8	0	17.623	19.2372826	-8.03365315	1.09	100	1	80.1447805	0.31982867	0	0	0	0	0	0	0	0	0	0	0	0.0000	0.0000	0.0000	0.0000;
];

%% generator cost data
%	2	startup	shutdown	n	c(n-1)	...	c0
mpc.gencost = [
               2	 0.0	 0.0	 3	   2.082286932	  140.3842614	   1375.9;
               2	 0.0	 0.0	 3	   0.013475833	  5.275836689	   67.9;
               2	 0.0	 0.0	 3	   0.049040857	  143.3363115	   2576.52;
               2	 0.0	 0.0	 3	   0.001861248	  4.86711941	   92.88;
               2	 0.0	 0.0	 3	   1.974646976	  163.6181252	   243.3333333;
               ];

%% branch data
%	fbus	tbus	r	x	b	rateA	rateB	rateC	ratio	angle	status	angmin	angmax
mpc.branch = [
	1	2	0.01938	0.05917	0.0528	141.6	188.4	188.4	0	0	1	-360	360;
	1	5	0.05403	0.22304	0.0492	51.6	68.4	68.4	0	0	1	-360	360;
	2	3	0.04699	0.19797	0.0438	210	280.8	280.8	0	0	1	-360	360;
	2	4	0.05811	0.17632	0.034	109.2	145.2	145.2	0	0	1	-360	360;
	2	5	0.05695	0.17388	0.0346	73.2	98.4	98.4	0	0	1	-360	360;
	3	4	0.06701	0.17103	0.0128	122.4	162	162	0	0	1	-360	360;
	4	5	0.01335	0.04211	0	458.4	610.8	610.8	0	0	1	-360	360;
	6	11	0.09498	0.1989	0	175.2	232.8	232.8	0	0	1	-360	360;
	6	12	0.12291	0.25581	0	51.6	68.4	68.4	0	0	1	-360	360;
	6	13	0.06615	0.13027	0	176.4	235.2	235.2	0	0	1	-360	360;
	7	8	0	0.17615	0	56.4	75.6	75.6	0	0	1	-360	360;
	7	9	0	0.11001	0	124.8	166.8	166.8	0	0	1	-360	360;
	9	10	0.03181	0.0845	0	255.6	340.8	340.8	0	0	1	-360	360;
	9	14	0.12711	0.27038	0	48	63.6	63.6	0	0	1	-360	360;
	10	11	0.08205	0.19207	0	156	208.8	208.8	0	0	1	-360	360;
	12	13	0.22092	0.19988	0	38.4	50.4	50.4	0	0	1	-360	360;
	13	14	0.17093	0.34802	0	85.2	114	114	0	0	1	-360	360;
	4	7	0	0.20912	0	41	55	55	0.978	0	1	-360	360;
	4	9	0	0.55618	0	24	31	31	0.969	0	1	-360	360;
	5	6	0	0.25202	0	116	154	154	0.932	0	1	-360	360;
];

%% bus names
mpc.bus_name = {
	'BUS-1       ';
	'BUS-2       ';
	'BUS-3       ';
	'BUS-4       ';
	'BUS-5       ';
	'BUS-6       ';
	'BUS-7       ';
	'BUS-8       ';
	'BUS-9       ';
	'BUS-10      ';
	'BUS-11      ';
	'BUS-12      ';
	'BUS-13      ';
	'BUS-14      ';
};
